LAMMPS (17 Nov 2016)
units			metal
boundary		p p p
atom_style		atomic
lattice			fcc 3.61
Lattice spacing in x,y,z = 3.61 3.61 3.61
region			box block 0 4 0 4 0 4
create_box		1 box
Created orthogonal box = (0 0 0) to (14.44 14.44 14.44)
create_atoms	1 box 						# the number of atoms is fcc 4 * 4^3
Created 256 atoms

pair_style		eam/alloy
pair_coeff 		* * Cu_mishin1.eam.alloy Cu
Reading potential file Cu_mishin1.eam.alloy with DATE: 2007-10-12

run				0
  1 neighbor list requests
  update every 1 steps, delay 10 steps, check yes
Step Temp E_pair E_mol TotEng Press
0            0   -906.27402            0   -906.27402    5697.8903
Loop time of 3.21865e-06 on 4 procs for 0 steps with 256 atoms

variable		E equal pe
variable		N equal atoms
print			"the number of atoms & system energy now are $N $E"
the number of atoms & system energy now are 256 -906.274015333037
print  			"@@@@ $N $E"
@@@@ 256 -906.274015333037

create_atoms	1 single 2.45 2.05 2.05
Created 1 atoms

min_style		sd
minimize		1.0e-12 1.0e-12 1000 1000
  1 neighbor list requests
  update every 1 steps, delay 0 steps, check yes
Step Temp E_pair E_mol TotEng Press
0            0   -890.76482            0   -890.76482    34100.746
Loop time of 0.118924 on 4 procs for 228 steps with 257 atoms

Minimization stats:
  Stopping criterion = energy tolerance
  Energy initial, next-to-last, final =
  Force two-norm initial, final = 50.5558 0.000149169
  Force max component initial, final = 25.196 6.79888e-05
  Final line search alpha, max atom move = 1 6.79888e-05
  Iterations, force evaluations = 228 451

print			"interstitial introduced, minimized: $N atoms, energy is $E"
interstitial introduced, minimized: 257 atoms, energy is -906.495266044997
# print  			"@@@@ $N $E"

fix 			1 all nvt temp 100 100 100 drag 0.2   		# The nvt ensemble, atomic number, volume and temperature remains constant;T=100K
timestep		0.005
run 			1000
  1 neighbor list requests
  update every 1 steps, delay 10 steps, check yes
Step Temp E_pair E_mol TotEng Press
228            0   -906.49527            0   -906.49527    16201.548
Loop time of 0.18739 on 4 procs for 1000 steps with 257 atoms

print 			"nvt performed, temperature up: $N atoms, total energy is $E"
nvt performed, temperature up: 257 atoms, total energy is -906.543359908408

fix 			1 all nvt temp 100 0.0001 100 drag 0.2 		# The NVT ensemble, temperature from 100 K to 0.0001 K
run 			1000
Step Temp E_pair E_mol TotEng Press
1228     1.456388   -906.54336            0   -906.49517    16045.753
Loop time of 0.202431 on 4 procs for 1000 steps with 257 atoms

print 			"nvt performed, temperature down: $N atoms, total energy is $E"
nvt performed, temperature down: 257 atoms, total energy is -906.556381262547

compute 		3 all pe/atom 							# Calculate the potential energy each atom
compute			4 all ke/atom 							# Calculate the kinetic energy of each atom
compute 		5 all coord/atom 3.0 					# The calculation of each neighbor atoms
dump			1 all custom 1 interstitial.lammpstrj id xs ys zs c_3 c_4 c_5

min_style 		sd
minimize 		1.0e-12 1.0e-12 1000 1000
  2 neighbor list requests
  update every 1 steps, delay 0 steps, check yes
Step Temp E_pair E_mol TotEng Press
2228     1.852543   -906.55638            0   -906.49508     16051.17
Loop time of 0.0976005 on 4 procs for 106 steps with 257 atoms

Minimization stats:
  Stopping criterion = energy tolerance
  Energy initial, next-to-last, final =
  Force two-norm initial, final = 0.537086 0.000173846
  Force max component initial, final = 0.0735765 0.000136047
  Final line search alpha, max atom move = 1 0.000136047
  Iterations, force evaluations = 106 209

print 			"the final state: $N atoms, total energy is $E"
the final state: 257 atoms, total energy is -906.61323314246
print  			"@@@@ $N $E"
@@@@ 257 -906.61323314246
