LAMMPS (17 Nov 2016)
# bulk Silicon lattice
units            metal
boundary         p p p

atom_style       atomic

variable         x index 3.276 3.277 3.278 3.279 3.280 3.281 3.282 3.283 3.284

#lattice          diamond $x
#lattice         diamond 5.431
#lattice          fcc 3.615
lattice          bcc 3.28
Lattice spacing in x,y,z = 3.28 3.28 3.28
#lattice         sc 2.60

region           box block 0 3 0 3 0 3
create_box       1 box
Created orthogonal box = (0 0 0) to (9.84 9.84 9.84)
create_atoms     1 box
Created 54 atoms

pair_style       sw
pair_coeff       * * Si.sw Si
Reading potential file Si.sw with DATE: 2007-06-11
mass             1 28
neighbor         1.0 bin
neighbor         1.0 bin
neigh_modify     every 1 delay 5 check yes

variable         P equal pe/54
variable         r equal 54/($x*3)^3
variable         r equal 54/(3.276*3)^3
timestep         0.005
thermo           10

min_style        sd
minimize         1.0e-12 1.0e-12 1000 1000
  1 neighbor list requests
  update every 1 steps, delay 0 steps, check yes
Step Temp E_pair E_mol TotEng Press
0            0   -216.86924            0   -216.86924   -215297.63
Loop time of 0.0106116 on 4 procs for 1 steps with 54 atoms

Minimization stats:
  Stopping criterion = energy tolerance
  Energy initial, next-to-last, final =
  Force two-norm initial, final = 7.29848e-14 7.05291e-14
  Force max component initial, final = 1.53523e-14 1.31006e-14
  Final line search alpha, max atom move = 1 1.31006e-14
  Iterations, force evaluations = 1 2

compute          3 all pe/atom
compute          4 all ke/atom
compute          5 all coord/atom 3.0
dump             1 all cfg 1 bcc.*.cfg mass type xs ys zs id type c_3 c_4 c_5

fix              1 all nvt temp 0.1 0.1 2 drag 0.2
run 1000
  2 neighbor list requests
  update every 1 steps, delay 5 steps, check yes
Step Temp E_pair E_mol TotEng Press
1            0   -216.86924            0   -216.86924   -215297.63
Averages over the last 51 of 102 rows, steps 510 to 1001:
Temp E_pair E_mol TotEng Press
4.32569e-24 -216.869 0 -216.869 -215298
Loop time of 1.13441 on 4 procs for 1000 steps with 54 atoms

unfix            1

print            "@@@@ (lattice parameter, rho, energy per atom):  $x $r $P"
@@@@ (lattice parameter, rho, energy per atom):  3.276 0.056885072561297 -4.01609708718506

clear
next             x
jump             in.bcc
# bulk Silicon lattice
units            metal
boundary         p p p

atom_style       atomic

variable         x index 3.276 3.277 3.278 3.279 3.280 3.281 3.282 3.283 3.284

#lattice          diamond $x
#lattice         diamond 5.431
#lattice          fcc 3.615
lattice          bcc 3.28
Lattice spacing in x,y,z = 3.28 3.28 3.28
#lattice         sc 2.60

region           box block 0 3 0 3 0 3
create_box       1 box
Created orthogonal box = (0 0 0) to (9.84 9.84 9.84)
create_atoms     1 box
Created 54 atoms

pair_style       sw
pair_coeff       * * Si.sw Si
Reading potential file Si.sw with DATE: 2007-06-11
mass             1 28
neighbor         1.0 bin
neighbor         1.0 bin
neigh_modify     every 1 delay 5 check yes

variable         P equal pe/54
variable         r equal 54/($x*3)^3
variable         r equal 54/(3.277*3)^3
timestep         0.005
thermo           10

min_style        sd
minimize         1.0e-12 1.0e-12 1000 1000
  1 neighbor list requests
  update every 1 steps, delay 0 steps, check yes
Step Temp E_pair E_mol TotEng Press
0            0   -216.86924            0   -216.86924   -215297.63
Loop time of 0.00290644 on 4 procs for 1 steps with 54 atoms

Minimization stats:
  Stopping criterion = energy tolerance
  Energy initial, next-to-last, final =
  Force two-norm initial, final = 7.29848e-14 7.05291e-14
  Force max component initial, final = 1.53523e-14 1.31006e-14
  Final line search alpha, max atom move = 1 1.31006e-14
  Iterations, force evaluations = 1 2

compute          3 all pe/atom
compute          4 all ke/atom
compute          5 all coord/atom 3.0
dump             1 all cfg 1 bcc.*.cfg mass type xs ys zs id type c_3 c_4 c_5

fix              1 all nvt temp 0.1 0.1 2 drag 0.2
run 1000
  2 neighbor list requests
  update every 1 steps, delay 5 steps, check yes
Step Temp E_pair E_mol TotEng Press
1            0   -216.86924            0   -216.86924   -215297.63
Averages over the last 51 of 102 rows, steps 510 to 1001:
Temp E_pair E_mol TotEng Press
4.32569e-24 -216.869 0 -216.869 -215298
Loop time of 1.34412 on 4 procs for 1000 steps with 54 atoms

unfix            1

print            "@@@@ (lattice parameter, rho, energy per atom):  $x $r $P"
@@@@ (lattice parameter, rho, energy per atom):  3.277 0.0568330117903723 -4.01609708718506

clear
next             x
jump             in.bcc
# bulk Silicon lattice
units            metal
boundary         p p p

atom_style       atomic

variable         x index 3.276 3.277 3.278 3.279 3.280 3.281 3.282 3.283 3.284

#lattice          diamond $x
#lattice         diamond 5.431
#lattice          fcc 3.615
lattice          bcc 3.28
Lattice spacing in x,y,z = 3.28 3.28 3.28
#lattice         sc 2.60

region           box block 0 3 0 3 0 3
create_box       1 box
Created orthogonal box = (0 0 0) to (9.84 9.84 9.84)
create_atoms     1 box
Created 54 atoms

pair_style       sw
pair_coeff       * * Si.sw Si
Reading potential file Si.sw with DATE: 2007-06-11
mass             1 28
neighbor         1.0 bin
neighbor         1.0 bin
neigh_modify     every 1 delay 5 check yes

variable         P equal pe/54
variable         r equal 54/($x*3)^3
variable         r equal 54/(3.278*3)^3
timestep         0.005
thermo           10

min_style        sd
minimize         1.0e-12 1.0e-12 1000 1000
  1 neighbor list requests
  update every 1 steps, delay 0 steps, check yes
Step Temp E_pair E_mol TotEng Press
0            0   -216.86924            0   -216.86924   -215297.63
Loop time of 0.00172764 on 4 procs for 1 steps with 54 atoms

Minimization stats:
  Stopping criterion = energy tolerance
  Energy initial, next-to-last, final =
  Force two-norm initial, final = 7.29848e-14 7.05291e-14
  Force max component initial, final = 1.53523e-14 1.31006e-14
  Final line search alpha, max atom move = 1 1.31006e-14
  Iterations, force evaluations = 1 2

compute          3 all pe/atom
compute          4 all ke/atom
compute          5 all coord/atom 3.0
dump             1 all cfg 1 bcc.*.cfg mass type xs ys zs id type c_3 c_4 c_5

fix              1 all nvt temp 0.1 0.1 2 drag 0.2
run 1000
  2 neighbor list requests
  update every 1 steps, delay 5 steps, check yes
Step Temp E_pair E_mol TotEng Press
1            0   -216.86924            0   -216.86924   -215297.63
Averages over the last 51 of 102 rows, steps 510 to 1001:
Temp E_pair E_mol TotEng Press
4.32569e-24 -216.869 0 -216.869 -215298
Loop time of 1.2494 on 4 procs for 1000 steps with 54 atoms

unfix            1

print            "@@@@ (lattice parameter, rho, energy per atom):  $x $r $P"
@@@@ (lattice parameter, rho, energy per atom):  3.278 0.05678101452755 -4.01609708718506

clear
next             x
jump             in.bcc
# bulk Silicon lattice
units            metal
boundary         p p p

atom_style       atomic

variable         x index 3.276 3.277 3.278 3.279 3.280 3.281 3.282 3.283 3.284

#lattice          diamond $x
#lattice         diamond 5.431
#lattice          fcc 3.615
lattice          bcc 3.28
Lattice spacing in x,y,z = 3.28 3.28 3.28
#lattice         sc 2.60

region           box block 0 3 0 3 0 3
create_box       1 box
Created orthogonal box = (0 0 0) to (9.84 9.84 9.84)
create_atoms     1 box
Created 54 atoms

pair_style       sw
pair_coeff       * * Si.sw Si
Reading potential file Si.sw with DATE: 2007-06-11
mass             1 28
neighbor         1.0 bin
neighbor         1.0 bin
neigh_modify     every 1 delay 5 check yes

variable         P equal pe/54
variable         r equal 54/($x*3)^3
variable         r equal 54/(3.279*3)^3
timestep         0.005
thermo           10

min_style        sd
minimize         1.0e-12 1.0e-12 1000 1000
  1 neighbor list requests
  update every 1 steps, delay 0 steps, check yes
Step Temp E_pair E_mol TotEng Press
0            0   -216.86924            0   -216.86924   -215297.63
Loop time of 0.00108141 on 4 procs for 1 steps with 54 atoms

Minimization stats:
  Stopping criterion = energy tolerance
  Energy initial, next-to-last, final =
  Force two-norm initial, final = 7.29848e-14 7.05291e-14
  Force max component initial, final = 1.53523e-14 1.31006e-14
  Final line search alpha, max atom move = 1 1.31006e-14
  Iterations, force evaluations = 1 2

compute          3 all pe/atom
compute          4 all ke/atom
compute          5 all coord/atom 3.0
dump             1 all cfg 1 bcc.*.cfg mass type xs ys zs id type c_3 c_4 c_5

fix              1 all nvt temp 0.1 0.1 2 drag 0.2
run 1000
  2 neighbor list requests
  update every 1 steps, delay 5 steps, check yes
Step Temp E_pair E_mol TotEng Press
1            0   -216.86924            0   -216.86924   -215297.63
Averages over the last 51 of 102 rows, steps 510 to 1001:
Temp E_pair E_mol TotEng Press
4.32569e-24 -216.869 0 -216.869 -215298
Loop time of 1.31319 on 4 procs for 1000 steps with 54 atoms

unfix            1

print            "@@@@ (lattice parameter, rho, energy per atom):  $x $r $P"
@@@@ (lattice parameter, rho, energy per atom):  3.279 0.0567290806760188 -4.01609708718506

clear
next             x
jump             in.bcc
# bulk Silicon lattice
units            metal
boundary         p p p

atom_style       atomic

variable         x index 3.276 3.277 3.278 3.279 3.280 3.281 3.282 3.283 3.284

#lattice          diamond $x
#lattice         diamond 5.431
#lattice          fcc 3.615
lattice          bcc 3.28
Lattice spacing in x,y,z = 3.28 3.28 3.28
#lattice         sc 2.60

region           box block 0 3 0 3 0 3
create_box       1 box
Created orthogonal box = (0 0 0) to (9.84 9.84 9.84)
create_atoms     1 box
Created 54 atoms

pair_style       sw
pair_coeff       * * Si.sw Si
Reading potential file Si.sw with DATE: 2007-06-11
mass             1 28
neighbor         1.0 bin
neighbor         1.0 bin
neigh_modify     every 1 delay 5 check yes

variable         P equal pe/54
variable         r equal 54/($x*3)^3
variable         r equal 54/(3.280*3)^3
timestep         0.005
thermo           10

min_style        sd
minimize         1.0e-12 1.0e-12 1000 1000
  1 neighbor list requests
  update every 1 steps, delay 0 steps, check yes
Step Temp E_pair E_mol TotEng Press
0            0   -216.86924            0   -216.86924   -215297.63
Loop time of 0.00108933 on 4 procs for 1 steps with 54 atoms

Minimization stats:
  Stopping criterion = energy tolerance
  Energy initial, next-to-last, final =
  Force two-norm initial, final = 7.29848e-14 7.05291e-14
  Force max component initial, final = 1.53523e-14 1.31006e-14
  Final line search alpha, max atom move = 1 1.31006e-14
  Iterations, force evaluations = 1 2

compute          3 all pe/atom
compute          4 all ke/atom
compute          5 all coord/atom 3.0
dump             1 all cfg 1 bcc.*.cfg mass type xs ys zs id type c_3 c_4 c_5

fix              1 all nvt temp 0.1 0.1 2 drag 0.2
run 1000
  2 neighbor list requests
  update every 1 steps, delay 5 steps, check yes
Step Temp E_pair E_mol TotEng Press
1            0   -216.86924            0   -216.86924   -215297.63
Averages over the last 51 of 102 rows, steps 510 to 1001:
Temp E_pair E_mol TotEng Press
4.32569e-24 -216.869 0 -216.869 -215298
Loop time of 1.28205 on 4 procs for 1000 steps with 54 atoms

unfix            1

print            "@@@@ (lattice parameter, rho, energy per atom):  $x $r $P"
@@@@ (lattice parameter, rho, energy per atom):  3.280 0.0566772101391448 -4.01609708718506

clear
next             x
jump             in.bcc
# bulk Silicon lattice
units            metal
boundary         p p p

atom_style       atomic

variable         x index 3.276 3.277 3.278 3.279 3.280 3.281 3.282 3.283 3.284

#lattice          diamond $x
#lattice         diamond 5.431
#lattice          fcc 3.615
lattice          bcc 3.28
Lattice spacing in x,y,z = 3.28 3.28 3.28
#lattice         sc 2.60

region           box block 0 3 0 3 0 3
create_box       1 box
Created orthogonal box = (0 0 0) to (9.84 9.84 9.84)
create_atoms     1 box
Created 54 atoms

pair_style       sw
pair_coeff       * * Si.sw Si
Reading potential file Si.sw with DATE: 2007-06-11
mass             1 28
neighbor         1.0 bin
neighbor         1.0 bin
neigh_modify     every 1 delay 5 check yes

variable         P equal pe/54
variable         r equal 54/($x*3)^3
variable         r equal 54/(3.281*3)^3
timestep         0.005
thermo           10

min_style        sd
minimize         1.0e-12 1.0e-12 1000 1000
  1 neighbor list requests
  update every 1 steps, delay 0 steps, check yes
Step Temp E_pair E_mol TotEng Press
0            0   -216.86924            0   -216.86924   -215297.63
Loop time of 0.00110579 on 4 procs for 1 steps with 54 atoms

Minimization stats:
  Stopping criterion = energy tolerance
  Energy initial, next-to-last, final =
  Force two-norm initial, final = 7.29848e-14 7.05291e-14
  Force max component initial, final = 1.53523e-14 1.31006e-14
  Final line search alpha, max atom move = 1 1.31006e-14
  Iterations, force evaluations = 1 2

compute          3 all pe/atom
compute          4 all ke/atom
compute          5 all coord/atom 3.0
dump             1 all cfg 1 bcc.*.cfg mass type xs ys zs id type c_3 c_4 c_5

fix              1 all nvt temp 0.1 0.1 2 drag 0.2
run 1000
  2 neighbor list requests
  update every 1 steps, delay 5 steps, check yes
Step Temp E_pair E_mol TotEng Press
1            0   -216.86924            0   -216.86924   -215297.63
Averages over the last 51 of 102 rows, steps 510 to 1001:
Temp E_pair E_mol TotEng Press
4.32569e-24 -216.869 0 -216.869 -215298
Loop time of 1.25671 on 4 procs for 1000 steps with 54 atoms

unfix            1

print            "@@@@ (lattice parameter, rho, energy per atom):  $x $r $P"
@@@@ (lattice parameter, rho, energy per atom):  3.281 0.0566254028204705 -4.01609708718506

clear
next             x
jump             in.bcc
# bulk Silicon lattice
units            metal
boundary         p p p

atom_style       atomic

variable         x index 3.276 3.277 3.278 3.279 3.280 3.281 3.282 3.283 3.284

#lattice          diamond $x
#lattice         diamond 5.431
#lattice          fcc 3.615
lattice          bcc 3.28
Lattice spacing in x,y,z = 3.28 3.28 3.28
#lattice         sc 2.60

region           box block 0 3 0 3 0 3
create_box       1 box
Created orthogonal box = (0 0 0) to (9.84 9.84 9.84)
create_atoms     1 box
Created 54 atoms

pair_style       sw
pair_coeff       * * Si.sw Si
Reading potential file Si.sw with DATE: 2007-06-11
mass             1 28
neighbor         1.0 bin
neighbor         1.0 bin
neigh_modify     every 1 delay 5 check yes

variable         P equal pe/54
variable         r equal 54/($x*3)^3
variable         r equal 54/(3.282*3)^3
timestep         0.005
thermo           10

min_style        sd
minimize         1.0e-12 1.0e-12 1000 1000
  1 neighbor list requests
  update every 1 steps, delay 0 steps, check yes
Step Temp E_pair E_mol TotEng Press
0            0   -216.86924            0   -216.86924   -215297.63
Loop time of 0.00273025 on 4 procs for 1 steps with 54 atoms

Minimization stats:
  Stopping criterion = energy tolerance
  Energy initial, next-to-last, final =
  Force two-norm initial, final = 7.29848e-14 7.05291e-14
  Force max component initial, final = 1.53523e-14 1.31006e-14
  Final line search alpha, max atom move = 1 1.31006e-14
  Iterations, force evaluations = 1 2

compute          3 all pe/atom
compute          4 all ke/atom
compute          5 all coord/atom 3.0
dump             1 all cfg 1 bcc.*.cfg mass type xs ys zs id type c_3 c_4 c_5

fix              1 all nvt temp 0.1 0.1 2 drag 0.2
run 1000
  2 neighbor list requests
  update every 1 steps, delay 5 steps, check yes
Step Temp E_pair E_mol TotEng Press
1            0   -216.86924            0   -216.86924   -215297.63
Averages over the last 51 of 102 rows, steps 510 to 1001:
Temp E_pair E_mol TotEng Press
4.32569e-24 -216.869 0 -216.869 -215298
Loop time of 1.32143 on 4 procs for 1000 steps with 54 atoms

unfix            1

print            "@@@@ (lattice parameter, rho, energy per atom):  $x $r $P"
@@@@ (lattice parameter, rho, energy per atom):  3.282 0.0565736586237148 -4.01609708718506

clear
next             x
jump             in.bcc
# bulk Silicon lattice
units            metal
boundary         p p p

atom_style       atomic

variable         x index 3.276 3.277 3.278 3.279 3.280 3.281 3.282 3.283 3.284

#lattice          diamond $x
#lattice         diamond 5.431
#lattice          fcc 3.615
lattice          bcc 3.28
Lattice spacing in x,y,z = 3.28 3.28 3.28
#lattice         sc 2.60

region           box block 0 3 0 3 0 3
create_box       1 box
Created orthogonal box = (0 0 0) to (9.84 9.84 9.84)
create_atoms     1 box
Created 54 atoms

pair_style       sw
pair_coeff       * * Si.sw Si
Reading potential file Si.sw with DATE: 2007-06-11
mass             1 28
neighbor         1.0 bin
neighbor         1.0 bin
neigh_modify     every 1 delay 5 check yes

variable         P equal pe/54
variable         r equal 54/($x*3)^3
variable         r equal 54/(3.283*3)^3
timestep         0.005
thermo           10

min_style        sd
minimize         1.0e-12 1.0e-12 1000 1000
  1 neighbor list requests
  update every 1 steps, delay 0 steps, check yes
Step Temp E_pair E_mol TotEng Press
0            0   -216.86924            0   -216.86924   -215297.63
Loop time of 0.00110191 on 4 procs for 1 steps with 54 atoms

Minimization stats:
  Stopping criterion = energy tolerance
  Energy initial, next-to-last, final =
  Force two-norm initial, final = 7.29848e-14 7.05291e-14
  Force max component initial, final = 1.53523e-14 1.31006e-14
  Final line search alpha, max atom move = 1 1.31006e-14
  Iterations, force evaluations = 1 2

compute          3 all pe/atom
compute          4 all ke/atom
compute          5 all coord/atom 3.0
dump             1 all cfg 1 bcc.*.cfg mass type xs ys zs id type c_3 c_4 c_5

fix              1 all nvt temp 0.1 0.1 2 drag 0.2
run 1000
  2 neighbor list requests
  update every 1 steps, delay 5 steps, check yes
Step Temp E_pair E_mol TotEng Press
1            0   -216.86924            0   -216.86924   -215297.63
Averages over the last 51 of 102 rows, steps 510 to 1001:
Temp E_pair E_mol TotEng Press
4.32569e-24 -216.869 0 -216.869 -215298
Loop time of 1.32739 on 4 procs for 1000 steps with 54 atoms

unfix            1

print            "@@@@ (lattice parameter, rho, energy per atom):  $x $r $P"
@@@@ (lattice parameter, rho, energy per atom):  3.283 0.0565219774527724 -4.01609708718506

clear
next             x
jump             in.bcc
# bulk Silicon lattice
units            metal
boundary         p p p

atom_style       atomic

variable         x index 3.276 3.277 3.278 3.279 3.280 3.281 3.282 3.283 3.284

#lattice          diamond $x
#lattice         diamond 5.431
#lattice          fcc 3.615
lattice          bcc 3.28
Lattice spacing in x,y,z = 3.28 3.28 3.28
#lattice         sc 2.60

region           box block 0 3 0 3 0 3
create_box       1 box
Created orthogonal box = (0 0 0) to (9.84 9.84 9.84)
create_atoms     1 box
Created 54 atoms

pair_style       sw
pair_coeff       * * Si.sw Si
Reading potential file Si.sw with DATE: 2007-06-11
mass             1 28
neighbor         1.0 bin
neighbor         1.0 bin
neigh_modify     every 1 delay 5 check yes

variable         P equal pe/54
variable         r equal 54/($x*3)^3
variable         r equal 54/(3.284*3)^3
timestep         0.005
thermo           10

min_style        sd
minimize         1.0e-12 1.0e-12 1000 1000
  1 neighbor list requests
  update every 1 steps, delay 0 steps, check yes
Step Temp E_pair E_mol TotEng Press
0            0   -216.86924            0   -216.86924   -215297.63
Loop time of 0.00108212 on 4 procs for 1 steps with 54 atoms

Minimization stats:
  Stopping criterion = energy tolerance
  Energy initial, next-to-last, final =
  Force two-norm initial, final = 7.29848e-14 7.05291e-14
  Force max component initial, final = 1.53523e-14 1.31006e-14
  Final line search alpha, max atom move = 1 1.31006e-14
  Iterations, force evaluations = 1 2

compute          3 all pe/atom
compute          4 all ke/atom
compute          5 all coord/atom 3.0
dump             1 all cfg 1 bcc.*.cfg mass type xs ys zs id type c_3 c_4 c_5

fix              1 all nvt temp 0.1 0.1 2 drag 0.2
run 1000
  2 neighbor list requests
  update every 1 steps, delay 5 steps, check yes
Step Temp E_pair E_mol TotEng Press
1            0   -216.86924            0   -216.86924   -215297.63
Averages over the last 51 of 102 rows, steps 510 to 1001:
Temp E_pair E_mol TotEng Press
4.32569e-24 -216.869 0 -216.869 -215298
Loop time of 1.34606 on 4 procs for 1000 steps with 54 atoms

unfix            1

print            "@@@@ (lattice parameter, rho, energy per atom):  $x $r $P"
@@@@ (lattice parameter, rho, energy per atom):  3.284 0.0564703592117136 -4.01609708718506

clear
next             x
jump             in.bcc
