LAMMPS (17 Nov 2016)
# bulk Silicon lattice
units            metal
boundary         p p p

atom_style       atomic

variable         x index 5.4305 5.4306 5.4307 5.4308 5.4309 5.4310 5.4311 5.4312 5.4313 5.4314 5.4315

lattice          diamond $x
lattice          diamond 5.4305
Lattice spacing in x,y,z = 5.4305 5.4305 5.4305
#lattice         diamond 5.431
#lattice         fcc 3.615
#lattice         bcc 3.28
#lattice         sc 2.60

region           box block 0 3 0 3 0 3
create_box       1 box
Created orthogonal box = (0 0 0) to (16.2915 16.2915 16.2915)
create_atoms     1 box
Created 216 atoms

pair_style       sw
pair_coeff       * * Si.sw Si
Reading potential file Si.sw with DATE: 2007-06-11
mass             1 28
neighbor         1.0 bin
neighbor         1.0 bin
neigh_modify     every 1 delay 5 check yes

variable         P equal pe/216
variable         r equal 216/($x*3)^3
variable         r equal 216/(5.4305*3)^3
timestep         0.005
thermo           10

min_style        sd
minimize         1.0e-12 1.0e-12 1000 1000
  1 neighbor list requests
  update every 1 steps, delay 0 steps, check yes
Step Temp E_pair E_mol TotEng Press
0            0   -936.70552            0   -936.70552    252.09015
Loop time of 0.00218987 on 1 procs for 1 steps with 216 atoms

Minimization stats:
  Stopping criterion = energy tolerance
  Energy initial, next-to-last, final =
  Force two-norm initial, final = 2.46695e-13 1.80489e-13
  Force max component initial, final = 2.11714e-14 2.17541e-14
  Final line search alpha, max atom move = 1 2.17541e-14
  Iterations, force evaluations = 1 2

compute          3 all pe/atom
compute          4 all ke/atom
compute          5 all coord/atom 3.0
dump             1 all custom 1 dc.lammpstrj id type xs ys zs c_3 c_4 c_5

fix 		 1 all nvt temp 0.1 0.1 2 drag 0.2
run 1000
  2 neighbor list requests
  update every 1 steps, delay 5 steps, check yes
Step Temp E_pair E_mol TotEng Press
1            0   -936.70552            0   -936.70552    252.09015
Averages over the last 51 of 102 rows, steps 510 to 1001:
Temp E_pair E_mol TotEng Press
1.13112e-23 -936.706 0 -936.706 252.09
Loop time of 0.936148 on 1 procs for 1000 steps with 216 atoms

unfix		 1

print            "@@@@ (lattice parameter, rho, energy per atom):  $x $r $P"
@@@@ (lattice parameter, rho, energy per atom):  5.4305 0.0499540302960965 -4.33659960863476

clear
next             x
jump             in.Silicon
# bulk Silicon lattice
units            metal
boundary         p p p

atom_style       atomic

variable         x index 5.4305 5.4306 5.4307 5.4308 5.4309 5.4310 5.4311 5.4312 5.4313 5.4314 5.4315

lattice          diamond $x
lattice          diamond 5.4306
Lattice spacing in x,y,z = 5.4306 5.4306 5.4306
#lattice         diamond 5.431
#lattice         fcc 3.615
#lattice         bcc 3.28
#lattice         sc 2.60

region           box block 0 3 0 3 0 3
create_box       1 box
Created orthogonal box = (0 0 0) to (16.2918 16.2918 16.2918)
create_atoms     1 box
Created 216 atoms

pair_style       sw
pair_coeff       * * Si.sw Si
Reading potential file Si.sw with DATE: 2007-06-11
mass             1 28
neighbor         1.0 bin
neighbor         1.0 bin
neigh_modify     every 1 delay 5 check yes

variable         P equal pe/216
variable         r equal 216/($x*3)^3
variable         r equal 216/(5.4306*3)^3
timestep         0.005
thermo           10

min_style        sd
minimize         1.0e-12 1.0e-12 1000 1000
  1 neighbor list requests
  update every 1 steps, delay 0 steps, check yes
Step Temp E_pair E_mol TotEng Press
0            0   -936.70555            0   -936.70555    196.02487
Loop time of 0.00132561 on 1 procs for 1 steps with 216 atoms

Minimization stats:
  Stopping criterion = energy tolerance
  Energy initial, next-to-last, final =
  Force two-norm initial, final = 2.57641e-13 1.8246e-13
  Force max component initial, final = 2.08185e-14 2.16806e-14
  Final line search alpha, max atom move = 1 2.16806e-14
  Iterations, force evaluations = 1 2

compute          3 all pe/atom
compute          4 all ke/atom
compute          5 all coord/atom 3.0
dump             1 all custom 1 dc.lammpstrj id type xs ys zs c_3 c_4 c_5

fix 		 1 all nvt temp 0.1 0.1 2 drag 0.2
run 1000
  2 neighbor list requests
  update every 1 steps, delay 5 steps, check yes
Step Temp E_pair E_mol TotEng Press
1            0   -936.70555            0   -936.70555    196.02487
Averages over the last 51 of 102 rows, steps 510 to 1001:
Temp E_pair E_mol TotEng Press
1.20798e-23 -936.706 0 -936.706 196.025
Loop time of 0.948631 on 1 procs for 1000 steps with 216 atoms

unfix		 1

print            "@@@@ (lattice parameter, rho, energy per atom):  $x $r $P"
@@@@ (lattice parameter, rho, energy per atom):  5.4306 0.0499512707606617 -4.33659976329051

clear
next             x
jump             in.Silicon
# bulk Silicon lattice
units            metal
boundary         p p p

atom_style       atomic

variable         x index 5.4305 5.4306 5.4307 5.4308 5.4309 5.4310 5.4311 5.4312 5.4313 5.4314 5.4315

lattice          diamond $x
lattice          diamond 5.4307
Lattice spacing in x,y,z = 5.4307 5.4307 5.4307
#lattice         diamond 5.431
#lattice         fcc 3.615
#lattice         bcc 3.28
#lattice         sc 2.60

region           box block 0 3 0 3 0 3
create_box       1 box
Created orthogonal box = (0 0 0) to (16.2921 16.2921 16.2921)
create_atoms     1 box
Created 216 atoms

pair_style       sw
pair_coeff       * * Si.sw Si
Reading potential file Si.sw with DATE: 2007-06-11
mass             1 28
neighbor         1.0 bin
neighbor         1.0 bin
neigh_modify     every 1 delay 5 check yes

variable         P equal pe/216
variable         r equal 216/($x*3)^3
variable         r equal 216/(5.4307*3)^3
timestep         0.005
thermo           10

min_style        sd
minimize         1.0e-12 1.0e-12 1000 1000
  1 neighbor list requests
  update every 1 steps, delay 0 steps, check yes
Step Temp E_pair E_mol TotEng Press
0            0   -936.70557            0   -936.70557    139.96968
Loop time of 0.00139594 on 1 procs for 1 steps with 216 atoms

Minimization stats:
  Stopping criterion = energy tolerance
  Energy initial, next-to-last, final =
  Force two-norm initial, final = 2.42456e-13 1.93545e-13
  Force max component initial, final = 2.15507e-14 2.28424e-14
  Final line search alpha, max atom move = 1 2.28424e-14
  Iterations, force evaluations = 1 2

compute          3 all pe/atom
compute          4 all ke/atom
compute          5 all coord/atom 3.0
dump             1 all custom 1 dc.lammpstrj id type xs ys zs c_3 c_4 c_5

fix 		 1 all nvt temp 0.1 0.1 2 drag 0.2
run 1000
  2 neighbor list requests
  update every 1 steps, delay 5 steps, check yes
Step Temp E_pair E_mol TotEng Press
1            0   -936.70557            0   -936.70557    139.96968
Averages over the last 51 of 102 rows, steps 510 to 1001:
Temp E_pair E_mol TotEng Press
1.24309e-23 -936.706 0 -936.706 139.97
Loop time of 0.925637 on 1 procs for 1000 steps with 216 atoms

unfix		 1

print            "@@@@ (lattice parameter, rho, energy per atom):  $x $r $P"
@@@@ (lattice parameter, rho, energy per atom):  5.4307 0.0499485114284778 -4.33659987925484

clear
next             x
jump             in.Silicon
# bulk Silicon lattice
units            metal
boundary         p p p

atom_style       atomic

variable         x index 5.4305 5.4306 5.4307 5.4308 5.4309 5.4310 5.4311 5.4312 5.4313 5.4314 5.4315

lattice          diamond $x
lattice          diamond 5.4308
Lattice spacing in x,y,z = 5.4308 5.4308 5.4308
#lattice         diamond 5.431
#lattice         fcc 3.615
#lattice         bcc 3.28
#lattice         sc 2.60

region           box block 0 3 0 3 0 3
create_box       1 box
Created orthogonal box = (0 0 0) to (16.2924 16.2924 16.2924)
create_atoms     1 box
Created 216 atoms

pair_style       sw
pair_coeff       * * Si.sw Si
Reading potential file Si.sw with DATE: 2007-06-11
mass             1 28
neighbor         1.0 bin
neighbor         1.0 bin
neigh_modify     every 1 delay 5 check yes

variable         P equal pe/216
variable         r equal 216/($x*3)^3
variable         r equal 216/(5.4308*3)^3
timestep         0.005
thermo           10

min_style        sd
minimize         1.0e-12 1.0e-12 1000 1000
  1 neighbor list requests
  update every 1 steps, delay 0 steps, check yes
Step Temp E_pair E_mol TotEng Press
0            0   -936.70559            0   -936.70559    83.924581
Loop time of 0.00139713 on 1 procs for 1 steps with 216 atoms

Minimization stats:
  Stopping criterion = energy tolerance
  Energy initial, next-to-last, final =
  Force two-norm initial, final = 2.60852e-13 1.85375e-13
  Force max component initial, final = 2.1309e-14 2.36061e-14
  Final line search alpha, max atom move = 1 2.36061e-14
  Iterations, force evaluations = 1 2

compute          3 all pe/atom
compute          4 all ke/atom
compute          5 all coord/atom 3.0
dump             1 all custom 1 dc.lammpstrj id type xs ys zs c_3 c_4 c_5

fix 		 1 all nvt temp 0.1 0.1 2 drag 0.2
run 1000
  2 neighbor list requests
  update every 1 steps, delay 5 steps, check yes
Step Temp E_pair E_mol TotEng Press
1            0   -936.70559            0   -936.70559    83.924581
Averages over the last 51 of 102 rows, steps 510 to 1001:
Temp E_pair E_mol TotEng Press
1.10196e-23 -936.706 0 -936.706 83.9246
Loop time of 0.945024 on 1 procs for 1000 steps with 216 atoms

unfix		 1

print            "@@@@ (lattice parameter, rho, energy per atom):  $x $r $P"
@@@@ (lattice parameter, rho, energy per atom):  5.4308 0.0499457522995258 -4.3365999565317

clear
next             x
jump             in.Silicon
# bulk Silicon lattice
units            metal
boundary         p p p

atom_style       atomic

variable         x index 5.4305 5.4306 5.4307 5.4308 5.4309 5.4310 5.4311 5.4312 5.4313 5.4314 5.4315

lattice          diamond $x
lattice          diamond 5.4309
Lattice spacing in x,y,z = 5.4309 5.4309 5.4309
#lattice         diamond 5.431
#lattice         fcc 3.615
#lattice         bcc 3.28
#lattice         sc 2.60

region           box block 0 3 0 3 0 3
create_box       1 box
Created orthogonal box = (0 0 0) to (16.2927 16.2927 16.2927)
create_atoms     1 box
Created 216 atoms

pair_style       sw
pair_coeff       * * Si.sw Si
Reading potential file Si.sw with DATE: 2007-06-11
mass             1 28
neighbor         1.0 bin
neighbor         1.0 bin
neigh_modify     every 1 delay 5 check yes

variable         P equal pe/216
variable         r equal 216/($x*3)^3
variable         r equal 216/(5.4309*3)^3
timestep         0.005
thermo           10

min_style        sd
minimize         1.0e-12 1.0e-12 1000 1000
  1 neighbor list requests
  update every 1 steps, delay 0 steps, check yes
Step Temp E_pair E_mol TotEng Press
0            0    -936.7056            0    -936.7056    27.889573
Loop time of 0.00136876 on 1 procs for 1 steps with 216 atoms

Minimization stats:
  Stopping criterion = energy tolerance
  Energy initial, next-to-last, final =
  Force two-norm initial, final = 1.92139e-13 1.64604e-13
  Force max component initial, final = 2.09234e-14 2.02928e-14
  Final line search alpha, max atom move = 1 2.02928e-14
  Iterations, force evaluations = 1 2

compute          3 all pe/atom
compute          4 all ke/atom
compute          5 all coord/atom 3.0
dump             1 all custom 1 dc.lammpstrj id type xs ys zs c_3 c_4 c_5

fix 		 1 all nvt temp 0.1 0.1 2 drag 0.2
run 1000
  2 neighbor list requests
  update every 1 steps, delay 5 steps, check yes
Step Temp E_pair E_mol TotEng Press
1            0    -936.7056            0    -936.7056    27.889573
Averages over the last 51 of 102 rows, steps 510 to 1001:
Temp E_pair E_mol TotEng Press
1.2583e-23 -936.706 0 -936.706 27.8896
Loop time of 0.92976 on 1 procs for 1000 steps with 216 atoms

unfix		 1

print            "@@@@ (lattice parameter, rho, energy per atom):  $x $r $P"
@@@@ (lattice parameter, rho, energy per atom):  5.4309 0.0499429933737872 -4.33659999512526

clear
next             x
jump             in.Silicon
# bulk Silicon lattice
units            metal
boundary         p p p

atom_style       atomic

variable         x index 5.4305 5.4306 5.4307 5.4308 5.4309 5.4310 5.4311 5.4312 5.4313 5.4314 5.4315

lattice          diamond $x
lattice          diamond 5.4310
Lattice spacing in x,y,z = 5.431 5.431 5.431
#lattice         diamond 5.431
#lattice         fcc 3.615
#lattice         bcc 3.28
#lattice         sc 2.60

region           box block 0 3 0 3 0 3
create_box       1 box
Created orthogonal box = (0 0 0) to (16.293 16.293 16.293)
create_atoms     1 box
Created 216 atoms

pair_style       sw
pair_coeff       * * Si.sw Si
Reading potential file Si.sw with DATE: 2007-06-11
mass             1 28
neighbor         1.0 bin
neighbor         1.0 bin
neigh_modify     every 1 delay 5 check yes

variable         P equal pe/216
variable         r equal 216/($x*3)^3
variable         r equal 216/(5.4310*3)^3
timestep         0.005
thermo           10

min_style        sd
minimize         1.0e-12 1.0e-12 1000 1000
  1 neighbor list requests
  update every 1 steps, delay 0 steps, check yes
Step Temp E_pair E_mol TotEng Press
0            0    -936.7056            0    -936.7056   -28.135347
Loop time of 0.00138497 on 1 procs for 1 steps with 216 atoms

Minimization stats:
  Stopping criterion = energy tolerance
  Energy initial, next-to-last, final =
  Force two-norm initial, final = 2.47052e-13 2.51356e-13
  Force max component initial, final = 1.83614e-14 2.14713e-14
  Final line search alpha, max atom move = 1 2.14713e-14
  Iterations, force evaluations = 1 2

compute          3 all pe/atom
compute          4 all ke/atom
compute          5 all coord/atom 3.0
dump             1 all custom 1 dc.lammpstrj id type xs ys zs c_3 c_4 c_5

fix 		 1 all nvt temp 0.1 0.1 2 drag 0.2
run 1000
  2 neighbor list requests
  update every 1 steps, delay 5 steps, check yes
Step Temp E_pair E_mol TotEng Press
1            0    -936.7056            0    -936.7056   -28.135347
Averages over the last 51 of 102 rows, steps 510 to 1001:
Temp E_pair E_mol TotEng Press
1.16539e-23 -936.706 0 -936.706 -28.1353
Loop time of 0.943636 on 1 procs for 1000 steps with 216 atoms

unfix		 1

print            "@@@@ (lattice parameter, rho, energy per atom):  $x $r $P"
@@@@ (lattice parameter, rho, energy per atom):  5.4310 0.0499402346512432 -4.33659999503975

clear
next             x
jump             in.Silicon
# bulk Silicon lattice
units            metal
boundary         p p p

atom_style       atomic

variable         x index 5.4305 5.4306 5.4307 5.4308 5.4309 5.4310 5.4311 5.4312 5.4313 5.4314 5.4315

lattice          diamond $x
lattice          diamond 5.4311
Lattice spacing in x,y,z = 5.4311 5.4311 5.4311
#lattice         diamond 5.431
#lattice         fcc 3.615
#lattice         bcc 3.28
#lattice         sc 2.60

region           box block 0 3 0 3 0 3
create_box       1 box
Created orthogonal box = (0 0 0) to (16.2933 16.2933 16.2933)
create_atoms     1 box
Created 216 atoms

pair_style       sw
pair_coeff       * * Si.sw Si
Reading potential file Si.sw with DATE: 2007-06-11
mass             1 28
neighbor         1.0 bin
neighbor         1.0 bin
neigh_modify     every 1 delay 5 check yes

variable         P equal pe/216
variable         r equal 216/($x*3)^3
variable         r equal 216/(5.4311*3)^3
timestep         0.005
thermo           10

min_style        sd
minimize         1.0e-12 1.0e-12 1000 1000
  1 neighbor list requests
  update every 1 steps, delay 0 steps, check yes
Step Temp E_pair E_mol TotEng Press
0            0   -936.70559            0   -936.70559   -84.150181
Loop time of 0.0013876 on 1 procs for 1 steps with 216 atoms

Minimization stats:
  Stopping criterion = energy tolerance
  Energy initial, next-to-last, final =
  Force two-norm initial, final = 1.91373e-13 1.68594e-13
  Force max component initial, final = 2.06561e-14 2.06872e-14
  Final line search alpha, max atom move = 1 2.06872e-14
  Iterations, force evaluations = 1 2

compute          3 all pe/atom
compute          4 all ke/atom
compute          5 all coord/atom 3.0
dump             1 all custom 1 dc.lammpstrj id type xs ys zs c_3 c_4 c_5

fix 		 1 all nvt temp 0.1 0.1 2 drag 0.2
run 1000
  2 neighbor list requests
  update every 1 steps, delay 5 steps, check yes
Step Temp E_pair E_mol TotEng Press
1            0   -936.70559            0   -936.70559   -84.150181
Averages over the last 51 of 102 rows, steps 510 to 1001:
Temp E_pair E_mol TotEng Press
1.14599e-23 -936.706 0 -936.706 -84.1502
Loop time of 0.932745 on 1 procs for 1000 steps with 216 atoms

unfix		 1

print            "@@@@ (lattice parameter, rho, energy per atom):  $x $r $P"
@@@@ (lattice parameter, rho, energy per atom):  5.4311 0.0499374761318751 -4.33659995627915

clear
next             x
jump             in.Silicon
# bulk Silicon lattice
units            metal
boundary         p p p

atom_style       atomic

variable         x index 5.4305 5.4306 5.4307 5.4308 5.4309 5.4310 5.4311 5.4312 5.4313 5.4314 5.4315

lattice          diamond $x
lattice          diamond 5.4312
Lattice spacing in x,y,z = 5.4312 5.4312 5.4312
#lattice         diamond 5.431
#lattice         fcc 3.615
#lattice         bcc 3.28
#lattice         sc 2.60

region           box block 0 3 0 3 0 3
create_box       1 box
Created orthogonal box = (0 0 0) to (16.2936 16.2936 16.2936)
create_atoms     1 box
Created 216 atoms

pair_style       sw
pair_coeff       * * Si.sw Si
Reading potential file Si.sw with DATE: 2007-06-11
mass             1 28
neighbor         1.0 bin
neighbor         1.0 bin
neigh_modify     every 1 delay 5 check yes

variable         P equal pe/216
variable         r equal 216/($x*3)^3
variable         r equal 216/(5.4312*3)^3
timestep         0.005
thermo           10

min_style        sd
minimize         1.0e-12 1.0e-12 1000 1000
  1 neighbor list requests
  update every 1 steps, delay 0 steps, check yes
Step Temp E_pair E_mol TotEng Press
0            0   -936.70557            0   -936.70557   -140.15493
Loop time of 0.00130105 on 1 procs for 1 steps with 216 atoms

Minimization stats:
  Stopping criterion = energy tolerance
  Energy initial, next-to-last, final =
  Force two-norm initial, final = 2.67497e-13 2.62619e-13
  Force max component initial, final = 2.08292e-14 2.08292e-14
  Final line search alpha, max atom move = 1 2.08292e-14
  Iterations, force evaluations = 1 2

compute          3 all pe/atom
compute          4 all ke/atom
compute          5 all coord/atom 3.0
dump             1 all custom 1 dc.lammpstrj id type xs ys zs c_3 c_4 c_5

fix 		 1 all nvt temp 0.1 0.1 2 drag 0.2
run 1000
  2 neighbor list requests
  update every 1 steps, delay 5 steps, check yes
Step Temp E_pair E_mol TotEng Press
1            0   -936.70557            0   -936.70557   -140.15493
Averages over the last 51 of 102 rows, steps 510 to 1001:
Temp E_pair E_mol TotEng Press
1.16284e-23 -936.706 0 -936.706 -140.155
Loop time of 0.937768 on 1 procs for 1000 steps with 216 atoms

unfix		 1

print            "@@@@ (lattice parameter, rho, energy per atom):  $x $r $P"
@@@@ (lattice parameter, rho, energy per atom):  5.4312 0.0499347178156642 -4.33659987884768

clear
next             x
jump             in.Silicon
# bulk Silicon lattice
units            metal
boundary         p p p

atom_style       atomic

variable         x index 5.4305 5.4306 5.4307 5.4308 5.4309 5.4310 5.4311 5.4312 5.4313 5.4314 5.4315

lattice          diamond $x
lattice          diamond 5.4313
Lattice spacing in x,y,z = 5.4313 5.4313 5.4313
#lattice         diamond 5.431
#lattice         fcc 3.615
#lattice         bcc 3.28
#lattice         sc 2.60

region           box block 0 3 0 3 0 3
create_box       1 box
Created orthogonal box = (0 0 0) to (16.2939 16.2939 16.2939)
create_atoms     1 box
Created 216 atoms

pair_style       sw
pair_coeff       * * Si.sw Si
Reading potential file Si.sw with DATE: 2007-06-11
mass             1 28
neighbor         1.0 bin
neighbor         1.0 bin
neigh_modify     every 1 delay 5 check yes

variable         P equal pe/216
variable         r equal 216/($x*3)^3
variable         r equal 216/(5.4313*3)^3
timestep         0.005
thermo           10

min_style        sd
minimize         1.0e-12 1.0e-12 1000 1000
  1 neighbor list requests
  update every 1 steps, delay 0 steps, check yes
Step Temp E_pair E_mol TotEng Press
0            0   -936.70555            0   -936.70555    -196.1496
Loop time of 0.0013845 on 1 procs for 1 steps with 216 atoms

Minimization stats:
  Stopping criterion = quadratic factors are zero
  Energy initial, next-to-last, final =
  Force two-norm initial, final = 6.94646e-24 6.94646e-24
  Force max component initial, final = 6.32805e-25 6.32805e-25
  Final line search alpha, max atom move = 1 6.32805e-25
  Iterations, force evaluations = 1 2

compute          3 all pe/atom
compute          4 all ke/atom
compute          5 all coord/atom 3.0
dump             1 all custom 1 dc.lammpstrj id type xs ys zs c_3 c_4 c_5

fix 		 1 all nvt temp 0.1 0.1 2 drag 0.2
run 1000
  2 neighbor list requests
  update every 1 steps, delay 5 steps, check yes
Step Temp E_pair E_mol TotEng Press
1            0   -936.70555            0   -936.70555    -196.1496
Averages over the last 51 of 102 rows, steps 510 to 1001:
Temp E_pair E_mol TotEng Press
7.6839e-42 -936.706 0 -936.706 -196.15
Loop time of 0.915905 on 1 procs for 1000 steps with 216 atoms

unfix		 1

print            "@@@@ (lattice parameter, rho, energy per atom):  $x $r $P"
@@@@ (lattice parameter, rho, energy per atom):  5.4313 0.0499319597025918 -4.33659976274947

clear
next             x
jump             in.Silicon
# bulk Silicon lattice
units            metal
boundary         p p p

atom_style       atomic

variable         x index 5.4305 5.4306 5.4307 5.4308 5.4309 5.4310 5.4311 5.4312 5.4313 5.4314 5.4315

lattice          diamond $x
lattice          diamond 5.4314
Lattice spacing in x,y,z = 5.4314 5.4314 5.4314
#lattice         diamond 5.431
#lattice         fcc 3.615
#lattice         bcc 3.28
#lattice         sc 2.60

region           box block 0 3 0 3 0 3
create_box       1 box
Created orthogonal box = (0 0 0) to (16.2942 16.2942 16.2942)
create_atoms     1 box
Created 216 atoms

pair_style       sw
pair_coeff       * * Si.sw Si
Reading potential file Si.sw with DATE: 2007-06-11
mass             1 28
neighbor         1.0 bin
neighbor         1.0 bin
neigh_modify     every 1 delay 5 check yes

variable         P equal pe/216
variable         r equal 216/($x*3)^3
variable         r equal 216/(5.4314*3)^3
timestep         0.005
thermo           10

min_style        sd
minimize         1.0e-12 1.0e-12 1000 1000
  1 neighbor list requests
  update every 1 steps, delay 0 steps, check yes
Step Temp E_pair E_mol TotEng Press
0            0   -936.70552            0   -936.70552   -252.13418
Loop time of 0.00139356 on 1 procs for 1 steps with 216 atoms

Minimization stats:
  Stopping criterion = energy tolerance
  Energy initial, next-to-last, final =
  Force two-norm initial, final = 2.31875e-13 2.26569e-13
  Force max component initial, final = 1.8315e-14 2.07372e-14
  Final line search alpha, max atom move = 1 2.07372e-14
  Iterations, force evaluations = 1 2

compute          3 all pe/atom
compute          4 all ke/atom
compute          5 all coord/atom 3.0
dump             1 all custom 1 dc.lammpstrj id type xs ys zs c_3 c_4 c_5

fix 		 1 all nvt temp 0.1 0.1 2 drag 0.2
run 1000
  2 neighbor list requests
  update every 1 steps, delay 5 steps, check yes
Step Temp E_pair E_mol TotEng Press
1            0   -936.70552            0   -936.70552   -252.13418
Averages over the last 51 of 102 rows, steps 510 to 1001:
Temp E_pair E_mol TotEng Press
1.18728e-23 -936.706 0 -936.706 -252.134
Loop time of 0.921109 on 1 procs for 1000 steps with 216 atoms

unfix		 1

print            "@@@@ (lattice parameter, rho, energy per atom):  $x $r $P"
@@@@ (lattice parameter, rho, energy per atom):  5.4314 0.0499292017926393 -4.33659960798848

clear
next             x
jump             in.Silicon
# bulk Silicon lattice
units            metal
boundary         p p p

atom_style       atomic

variable         x index 5.4305 5.4306 5.4307 5.4308 5.4309 5.4310 5.4311 5.4312 5.4313 5.4314 5.4315

lattice          diamond $x
lattice          diamond 5.4315
Lattice spacing in x,y,z = 5.4315 5.4315 5.4315
#lattice         diamond 5.431
#lattice         fcc 3.615
#lattice         bcc 3.28
#lattice         sc 2.60

region           box block 0 3 0 3 0 3
create_box       1 box
Created orthogonal box = (0 0 0) to (16.2945 16.2945 16.2945)
create_atoms     1 box
Created 216 atoms

pair_style       sw
pair_coeff       * * Si.sw Si
Reading potential file Si.sw with DATE: 2007-06-11
mass             1 28
neighbor         1.0 bin
neighbor         1.0 bin
neigh_modify     every 1 delay 5 check yes

variable         P equal pe/216
variable         r equal 216/($x*3)^3
variable         r equal 216/(5.4315*3)^3
timestep         0.005
thermo           10

min_style        sd
minimize         1.0e-12 1.0e-12 1000 1000
  1 neighbor list requests
  update every 1 steps, delay 0 steps, check yes
Step Temp E_pair E_mol TotEng Press
0            0   -936.70547            0   -936.70547   -308.10868
Loop time of 0.00132561 on 1 procs for 1 steps with 216 atoms

Minimization stats:
  Stopping criterion = quadratic factors are zero
  Energy initial, next-to-last, final =
  Force two-norm initial, final = 1.83995e-18 1.83995e-18
  Force max component initial, final = 4.33681e-19 4.33681e-19
  Final line search alpha, max atom move = 1 4.33681e-19
  Iterations, force evaluations = 1 2

compute          3 all pe/atom
compute          4 all ke/atom
compute          5 all coord/atom 3.0
dump             1 all custom 1 dc.lammpstrj id type xs ys zs c_3 c_4 c_5

fix 		 1 all nvt temp 0.1 0.1 2 drag 0.2
run 1000
  2 neighbor list requests
  update every 1 steps, delay 5 steps, check yes
Step Temp E_pair E_mol TotEng Press
1            0   -936.70547            0   -936.70547   -308.10868
Averages over the last 51 of 102 rows, steps 510 to 1001:
Temp E_pair E_mol TotEng Press
5.39097e-31 -936.705 0 -936.705 -308.109
Loop time of 0.926843 on 1 procs for 1000 steps with 216 atoms

unfix		 1

print            "@@@@ (lattice parameter, rho, energy per atom):  $x $r $P"
@@@@ (lattice parameter, rho, energy per atom):  5.4315 0.0499264440857878 -4.33659941456886

clear
next             x
jump             in.Silicon
